Circuit: * Z:\media\marco\Daten\Repositories\synplc\pcbs\Simulationen\analog_out.asc

Direct Newton iteration for .op point succeeded.

Date: Sat May 28 23:32:06 2022
Total elapsed time: 0.079 seconds.

tnom = 27
temp = 27
method = trap
totiter = 186
traniter = 0
tranpoints = 0
accept = 0
rejected = 0
matrix size = 22
fillins = 26
solver = Normal

