Circuit: * Z:\media\marco\Daten\Repositories\microsps\pcbs\Simulationen\analog_out.asc

Direct Newton iteration failed to find .op point.  (Use ".option noopiter" to skip.)
Starting Gmin stepping
Gmin = 10
Gmin = 1.07374
Gmin = 0.115292
Gmin = 0.0123794
Gmin = 0.00132923
Gmin = 0.000142725
Gmin = 1.5325e-005
Gmin = 1.6455e-006
vernier = 0.5
vernier = 0.666667
Gmin = 5.00922e-007
vernier = 0.888888
Gmin = 8.49738e-008
vernier = 1
Gmin = 9.33136e-009
Gmin = 1.00195e-009
Gmin = 1.07583e-010
Gmin = 1.15517e-011
Gmin = 1.24035e-012
Gmin = 1.33182e-013
Gmin = 0
Gmin stepping succeeded in finding the operating point.


Date: Thu Nov 18 19:50:15 2021
Total elapsed time: 0.164 seconds.

tnom = 27
temp = 27
method = modified trap
totiter = 2958
traniter = 2441
tranpoints = 1186
accept = 1139
rejected = 47
matrix size = 22
fillins = 37
solver = Normal
Thread vector: 11.0/7.8[2] 3.2/2.9[1] 1.9/1.8[1] 0.3/1.3[1]  2592/500
Matrix Compiler1: 2.63 KB object code size  0.6/0.4/[0.2]
Matrix Compiler2: 2.48 KB object code size  0.4/0.5/[0.3]

