Circuit: * Z:\media\marco\Daten\Repositories\microsps\pcbs\Simulationen\Draft2.asc

WARNING: Specified period is not longer than the sum of Trise, Tfall, and Ton for v1.  Increasing period to 1
Limiting fall time of source v1 to 1.9984e-016
Direct Newton iteration for .op point succeeded.
.step ib=5e-005
.step ib=0.0001
.step ib=0.00015
.step ib=0.0002
.step ib=0.00025
.step ib=0.0003
.step ib=0.00035
.step ib=0.0004

Date: Thu Nov 18 19:01:16 2021
Total elapsed time: 0.151 seconds.

tnom = 27
temp = 27
method = modified trap
totiter = 2103
traniter = 2088
tranpoints = 1045
accept = 1045
rejected = 0
matrix size = 7
fillins = 0
solver = Normal
Matrix Compiler1:      23 opcodes  0.1/[0.0]/0.1
Matrix Compiler2:      43 opcodes  0.1/[0.1]/0.1

